#------------------------------------------------------------------
# Heading
#------------------------------------------------------------------
#
wipe
model basic -ndm 3 -ndf 6
#
#
#------------------------------------------------------------------
# Nodes
#------------------------------------------------------------------
#
node 1 5.604 8.107 2.540
node 2 5.702 8.940 2.293
node 3 0.050 5.399 0.684
node 4 -0.357 5.723 0.189
node 5 0.802 10.030 1.409
node 6 -0.239 9.658 0.189
node 7 1.560 4.878 1.673
node 8 0.039 5.567 0.734
node 9 2.600 10.353 2.113
node 10 0.946 10.207 1.316
node 11 3.396 4.699 2.064
node 12 1.580 5.083 1.763
node 13 4.541 10.342 2.094
node 14 2.688 10.509 1.959
node 15 5.261 4.843 1.759
node 16 3.446 4.903 2.145
node 17 6.303 10.006 1.369
node 18 4.559 10.491 1.917
node 19 6.830 5.290 0.803
node 20 5.334 5.057 1.809
# ... 89 like lines cut
#
#
#
#------------------------------------------------------------------
# Boundary conditions
#------------------------------------------------------------------
#
# disp_fixed
#-----------
#
fix 4 1 1 1 1 1 1
fix 6 1 1 1 1 1 1
fix 21 1 1 1 1 1 1
fix 23 1 1 1 1 1 1
fix 28 1 1 1 1 1 1
fix 31 1 1 1 1 1 1
fix 36 1 1 1 1 1 1
fix 107 1 1 1 1 1 1
fix 108 1 1 1 1 1 1
fix 109 1 1 1 1 1 1
#
#
#
#------------------------------------------------------------------
# Materials
#------------------------------------------------------------------
#
# mat_elastic
#------------
#
uniaxialMaterial Elastic 1 11000000
nDMaterial ElasticIsotropic 1001 11000000 1e-05 0.01
#
#
#
#------------------------------------------------------------------
# Elements
#------------------------------------------------------------------
#
# ep_beam
#--------
#
geomTransf Corotational 1 0.993165701249 -0.116712852178 0.0
element elasticBeamColumn 1 1 2 0.125663706144 11000000 5499945.00055 0.00251327412287 0.00125663706144 0.00125663706144 1
#
geomTransf Corotational 2 0.622570914756 0.782563387912 -0.0
element elasticBeamColumn 2 3 4 0.125663706144 11000000 5499945.00055 0.00251327412287 0.00125663706144 0.00125663706144 2
#
geomTransf Corotational 3 -0.336465089298 0.941695940144 0.0
element elasticBeamColumn 3 5 6 0.125663706144 11000000 5499945.00055 0.00251327412287 0.00125663706144 0.00125663706144 3
#
geomTransf Corotational 4 0.412411413359 0.91099770918 -0.0
element elasticBeamColumn 4 7 8 0.125663706144 11000000 5499945.00055 0.00251327412287 0.00125663706144 0.00125663706144 4
#
geomTransf Corotational 5 -0.0879225956952 0.996127309718 0.0
element elasticBeamColumn 5 9 10 0.125663706144 11000000 5499945.00055 0.00251327412287 0.00125663706144 0.00125663706144 5
#
geomTransf Corotational 6 0.20695013693 0.978351491451 -0.0
element elasticBeamColumn 6 11 12 0.125663706144 11000000 5499945.00055 0.00251327412287 0.00125663706144 0.00125663706144 6
#
geomTransf Corotational 7 0.0895151120164 0.995985464111 -0.0
element elasticBeamColumn 7 13 14 0.125663706144 11000000 5499945.00055 0.00251327412287 0.00125663706144 0.00125663706144 7
#
geomTransf Corotational 8 0.0332811518626 0.999446029023 -0.0
element elasticBeamColumn 8 15 16 0.125663706144 11000000 5499945.00055 0.00251327412287 0.00125663706144 0.00125663706144 8
#
geomTransf Corotational 9 0.268302685995 0.963334660794 -0.0
element elasticBeamColumn 9 17 18 0.125663706144 11000000 5499945.00055 0.00251327412287 0.00125663706144 0.00125663706144 9
#
geomTransf Corotational 10 -0.153491894577 0.988149906795 0.0
element elasticBeamColumn 10 19 20 0.125663706144 11000000 5499945.00055 0.00251327412287 0.00125663706144 0.00125663706144 10
#
geomTransf Corotational 11 0.478472890296 0.878102325046 -0.0
element elasticBeamColumn 11 21 22 0.125663706144 11000000 5499945.00055 0.00251327412287 0.00125663706144 0.00125663706144 11
#
geomTransf Corotational 12 -0.339632910647 0.940558071575 0.0
element elasticBeamColumn 12 23 24 0.125663706144 11000000 5499945.00055 0.00251327412287 0.00125663706144 0.00125663706144 12
#
geomTransf Corotational 13 0.997774550672 0.0666779276159 -0.0
element elasticBeamColumn 13 3 8 0.125663706144 11000000 5499945.00055 0.00251327412287 0.00125663706144 0.00125663706144 13
#
geomTransf Corotational 14 0.945836269526 0.324644037752 -0.0
element elasticBeamColumn 14 8 25 0.125663706144 11000000 5499945.00055 0.00251327412287 0.00125663706144 0.00125663706144 14
#
geomTransf Corotational 15 0.992913426574 0.118839923132 -0.0
element elasticBeamColumn 15 25 26 0.125663706144 11000000 5499945.00055 0.00251327412287 0.00125663706144 0.00125663706144 15
#
geomTransf Corotational 16 0.73568573271 0.677323041603 -0.0
element elasticBeamColumn 16 25 27 0.125663706144 11000000 5499945.00055 0.00251327412287 0.00125663706144 0.00125663706144 16
#
geomTransf Corotational 17 0.81598067375 0.578079181486 -0.0
element elasticBeamColumn 17 27 28 0.125663706144 11000000 5499945.00055 0.00251327412287 0.00125663706144 0.00125663706144 17
#
geomTransf Corotational 18 -0.136552561443 0.990632827017 0.0
element elasticBeamColumn 18 29 30 0.125663706144 11000000 5499945.00055 0.00251327412287 0.00125663706144 0.00125663706144 18
#
geomTransf Corotational 19 -0.157609523815 0.987501512912 0.0
element elasticBeamColumn 19 30 31 0.125663706144 11000000 5499945.00055 0.00251327412287 0.00125663706144 0.00125663706144 19
#
geomTransf Corotational 20 -0.934864647291 0.35500435384 0.0
element elasticBeamColumn 20 32 33 0.125663706144 11000000 5499945.00055 0.00251327412287 0.00125663706144 0.00125663706144 20
# ... 388 like lines cut
#
#
#------------------------------------------------------------------
# Steps
#------------------------------------------------------------------
#
# step_load
#----------
#
timeSeries Constant 1 -factor 1.0
pattern Plain 1 1 -fact 1 {
#
# load_point
#-----------
#
load 15 0.0 0.0 -1100.99 0.0 0.0 0.0
load 20 0.0 0.0 -1100.99 0.0 0.0 0.0
load 82 0.0 0.0 -1100.99 0.0 0.0 0.0
load 84 0.0 0.0 -1100.99 0.0 0.0 0.0
load 83 0.0 0.0 -1100.99 0.0 0.0 0.0
load 73 0.0 0.0 -1100.99 0.0 0.0 0.0
load 77 0.0 0.0 -1100.99 0.0 0.0 0.0
load 74 0.0 0.0 -1100.99 0.0 0.0 0.0
load 76 0.0 0.0 -1100.99 0.0 0.0 0.0
load 75 0.0 0.0 -1100.99 0.0 0.0 0.0
load 78 0.0 0.0 -1100.99 0.0 0.0 0.0
load 85 0.0 0.0 -1100.99 0.0 0.0 0.0
load 1 0.0 0.0 -1100.99 0.0 0.0 0.0
load 86 0.0 0.0 -1100.99 0.0 0.0 0.0
load 92 0.0 0.0 -1100.99 0.0 0.0 0.0
load 91 0.0 0.0 -1100.99 0.0 0.0 0.0
load 94 0.0 0.0 -1100.99 0.0 0.0 0.0
load 89 0.0 0.0 -1100.99 0.0 0.0 0.0
load 93 0.0 0.0 -1100.99 0.0 0.0 0.0
load 90 0.0 0.0 -1100.99 0.0 0.0 0.0
# ... 78 like lines cut
#
#
#
# Output
#-------
#
}
#
# Node recorders
#---------------
#
recorder Node -file C:/Users/arezaei/Desktop/Nexorades_FIB_2021/COMPAS_FINAL/Nexorades/step_load_u.out -time -nodeRange 1 109 -dof 1 2 3 disp
#
recorder Node -file C:/Users/arezaei/Desktop/Nexorades_FIB_2021/COMPAS_FINAL/Nexorades/step_load_rf.out -time -nodeRange 1 109 -dof 1 2 3 reaction
#
#
# Element recorders
#------------------
#
recorder Element -file C:/Users/arezaei/Desktop/Nexorades_FIB_2021/COMPAS_FINAL/Nexorades/step_load_sf_beam.out -time -ele 1 2 3 4 5 6 7 8 9 10 11 12 13 14 15 16 17 18 19 20 21 22 23 24 25 26 27 28 29 30 31 32 33 34 35 36 37 38 39 40 41 42 43 44 45 46 47 48 49 50 51 52 53 54 55 56 57 58 59 60 61 62 63 64 65 66 67 68 69 70 71 72 73 74 75 76 77 78 79 80 81 82 83 84 85 86 87 88 89 90 91 92 93 94 95 9
#
# Solver
#-------
#
#
constraints Transformation
numberer RCM
system ProfileSPD
test NormUnbalance 0.01 100 5
algorithm NewtonLineSearch
integrator LoadControl 0.01
analysis Static
analyze 100
